pcf
* control data
restart estimation
98     128      13      0      6
194 1 single point 1 0 0
10.0 -3.0 0.3 0.03 10 999
5.0 5.0 1.0e-3
0.1  noaui
   5  0.005 4 4 0.005 4
1 1 1
* singular value decomposition
1
97 5.00E-07
0
* parameter groups
GENERL  relative     1.0000E-02  1.0000E-06  switch      2.000      parabolic
COWCAF  relative     1.0000E-02  1.0000E-06  switch      2.000      parabolic
OSNPET  relative     1.0000E-02  1.0000E-06  switch      2.000      parabolic
WDBEAV  relative     1.0000E-02  1.0000E-06  switch      2.000      parabolic
WDCOYT  relative     1.0000E-02  1.0000E-06  switch      2.000      parabolic
WDDEER  relative     1.0000E-02  1.0000E-06  switch      2.000      parabolic
WDDUCK  relative     1.0000E-02  1.0000E-06  switch      2.000      parabolic
WDELK   relative     1.0000E-02  1.0000E-06  switch      2.000      parabolic
WDGESE  relative     1.0000E-02  1.0000E-06  switch      2.000      parabolic
WDGULL  relative     1.0000E-02  1.0000E-06  switch      2.000      parabolic
WDHEEG  relative     1.0000E-02  1.0000E-06  switch      2.000      parabolic
WDOTER  relative     1.0000E-02  1.0000E-06  switch      2.000      parabolic
WDRACN  relative     1.0000E-02  1.0000E-06  switch      2.000      parabolic
* parameter data
pwqsop        log    factor    1.500000      5.00000e-01  1.87500e+00    generl  1.000  0.000  1
fwqsop        log    factor    3.000000      1.00000e+00  3.75000e+00    generl  1.000  0.000  1
rwqsop        log    factor    1.875000      2.50000e-01  1.87500e+00    generl  1.000  0.000  1
fstdec        log    factor    1.150000      1.00000e-04  3.00000e+00    generl  1.000  0.000  1
stckdncc      log    factor    10.00000      5.60000e+00  1.00000e+01    cowcaf  1.000  0.000  1
baccc         log    factor   2.8350000E+09  2.56500e+09  2.83500e+09    cowcaf  1.000  0.000  1
stracfcc01    log    factor   8.4544000E-03  1.00000e-04  9.90000e+01    cowcaf  1.000  0.000  1
stracfcc02    log    factor   4.3426000E-03  1.00000e-04  9.90000e+01    cowcaf  1.000  0.000  1
stracfcc04    log    factor   7.2642000E-04  1.00000e-04  9.90000e+01    cowcaf  1.000  0.000  1
stracfcc05    log    factor   1.6517166E-02  1.00000e-04  9.90000e+01    cowcaf  1.000  0.000  1
stracfcc06    log    factor   7.9496385E-02  1.00000e-04  9.90000e+01    cowcaf  1.000  0.000  1
stracfcc07    log    factor   3.2649010E-02  1.00000e-04  9.90000e+01    cowcaf  1.000  0.000  1
stracfcc08    log    factor   2.1906780E-02  1.00000e-04  9.90000e+01    cowcaf  1.000  0.000  1
stracfcc09    log    factor    1.613517      1.00000e-04  9.90000e+01    cowcaf  1.000  0.000  1
stracfcc10    log    factor   0.6367666      1.00000e-04  9.90000e+01    cowcaf  1.000  0.000  1
stracfcc11    log    factor   0.2199752      1.00000e-04  9.90000e+01    cowcaf  1.000  0.000  1
stracfcc12    log    factor    1.012111      1.00000e-04  9.90000e+01    cowcaf  1.000  0.000  1
stracfcc13    log    factor   0.1892911      1.00000e-04  9.90000e+01    cowcaf  1.000  0.000  1
stracfcc14    log    factor   0.1478428      1.00000e-04  9.90000e+01    cowcaf  1.000  0.000  1
stracfcc16    log    factor   0.5165083      1.00000e-04  9.90000e+01    cowcaf  1.000  0.000  1
stracfcc17    log    factor   0.2184372      1.00000e-04  9.90000e+01    cowcaf  1.000  0.000  1
stracfcc18    log    factor    10.01300      1.00000e-04  9.90000e+01    cowcaf  1.000  0.000  1
stracpcc01    log    factor    80.00000      4.80000e+01  8.00000e+01    cowcaf  1.000  0.000  1
stracpcc02    log    factor    31.00000      1.90000e+01  3.10000e+01    cowcaf  1.000  0.000  1
stracpcc04    log    factor    54.00000      3.20000e+01  5.40000e+01    cowcaf  1.000  0.000  1
stracpcc05    log    factor    61.00000      6.10000e+01  1.00000e+02    cowcaf  1.000  0.000  1
stracpcc06    log    factor    31.00000      3.10000e+01  5.10000e+01    cowcaf  1.000  0.000  1
stracpcc07    log    factor    71.00000      7.10000e+01  1.00000e+02    cowcaf  1.000  0.000  1
stracpcc08    log    factor    32.00000      3.20000e+01  5.30000e+01    cowcaf  1.000  0.000  1
stracpcc09    log    factor    7.000000      7.00000e+00  1.10000e+01    cowcaf  1.000  0.000  1
stracpcc10    log    factor    12.52857      1.00000e-06  2.50000e+01    cowcaf  1.000  0.000  1
stracpcc11    log    factor    8.048315      1.00000e-06  2.50000e+01    cowcaf  1.000  0.000  1
stracpcc12    log    factor    54.31279      5.00000e+01  8.40000e+01    cowcaf  1.000  0.000  1
stracpcc13    log    factor    25.00000      2.50000e+01  4.10000e+01    cowcaf  1.000  0.000  1
stracpcc14    log    factor    5.000000      5.00000e+00  8.00000e+00    cowcaf  1.000  0.000  1
stracpcc16    log    factor    32.00000      3.20000e+01  5.30000e+01    cowcaf  1.000  0.000  1
stracpcc17    log    factor    49.00000      4.90000e+01  8.10000e+01    cowcaf  1.000  0.000  1
stracpcc18    log    factor    15.01685      1.10000e+01  1.90000e+01    cowcaf  1.000  0.000  1
instrpcc      log    factor    12.50000      1.25000e+01  3.75000e+01    cowcaf  1.000  0.000  1
instrfcc      log    factor    37.50000      1.25000e+01  3.75000e+01    cowcaf  1.000  0.000  1
bachosp       log    factor   7.6000000E+11  7.60000e+11  8.40000e+11    osnpet  1.000  0.000  1
bacposp       log    factor   4.7500000E+09  4.75000e+09  5.25000e+09    osnpet  1.000  0.000  1
frpr74osp     log    factor    22.50000      2.25000e+01  3.75000e+01    osnpet  1.000  0.000  1
fr7486osp     log    factor    15.00000      1.12500e+01  1.87500e+01    osnpet  1.000  0.000  1
frpt86osp     log    factor    3.750000      3.75000e+00  6.25000e+00    osnpet  1.000  0.000  1
dtstosp01     log    factor    25.55319      1.00000e-04  1.00000e+02    osnpet  1.000  0.000  1
dtstosp02     log    factor    49.79654      1.00000e-04  1.00000e+02    osnpet  1.000  0.000  1
dtstosp04     log    factor    100.0000      1.00000e-04  1.00000e+02    osnpet  1.000  0.000  1
dtstosp05     log    factor   1.0000000E-04  1.00000e-04  1.00000e+02    osnpet  1.000  0.000  1
dtstosp06     log    factor   1.0000000E-04  1.00000e-04  1.00000e+02    osnpet  1.000  0.000  1
dtstosp07     log    factor   1.0000000E-04  1.00000e-04  1.00000e+02    osnpet  1.000  0.000  1
dtstosp08     log    factor   2.4305864E-04  1.00000e-04  1.00000e+02    osnpet  1.000  0.000  1
dtstosp09     log    factor   0.1622101      1.00000e-04  1.00000e+02    osnpet  1.000  0.000  1
dtstosp10     log    factor    50.00000      1.00000e-04  1.00000e+02    osnpet  1.000  0.000  1
dtstosp11     log    factor    50.00000      1.00000e-04  1.00000e+02    osnpet  1.000  0.000  1
dtstosp12     log    factor   2.3991677E-04  1.00000e-04  1.00000e+02    osnpet  1.000  0.000  1
dtstosp13     log    factor    13.56732      1.00000e-04  1.00000e+02    osnpet  1.000  0.000  1
dtstosp14     log    factor   5.0879000E-02  1.00000e-04  1.00000e+02    osnpet  1.000  0.000  1
dtstosp16     log    factor   4.1145000E-02  1.00000e-04  1.00000e+02    osnpet  1.000  0.000  1
dtstosp17     log    factor   1.0000000E-04  1.00000e-04  1.00000e+02    osnpet  1.000  0.000  1
dtstosp18     log    factor    100.0000      1.00000e-04  1.00000e+02    osnpet  1.000  0.000  1
adbeav        log    factor   7.5000000E-03  7.50000e-03  2.25000e-02    wdbeav  1.000  0.000  1
instrbeav     log    factor    31.25000      1.87500e+01  3.12500e+01    wdbeav  1.000  0.000  1
bacbeav       log    factor    196650.0      1.96650e+05  2.17350e+05    wdbeav  1.000  0.000  1
adcoyt        log    factor   3.6063000E-06  3.60625e-06  7.17644e-04    wdcoyt  1.000  0.000  1
instrcoyt     log    factor    1.000000      7.50000e-01  1.25000e+00    wdcoyt  1.000  0.000  1
baccoyt       log    factor   9.0000115E+08  8.55000e+08  9.45000e+08    wdcoyt  1.000  0.000  1
stracdeer     log    factor    50.00000      2.50000e-01  5.00000e+01    wddeer  1.000  0.000  1
addeer        log    factor   4.7000000E-04  4.70000e-04  9.35300e-02    wddeer  1.000  0.000  1
instrdeer     log    factor    1.000000      5.00000e-01  1.50000e+00    wddeer  1.000  0.000  1
bacdeer       log    factor   1.8375000E+08  1.66250e+08  1.83750e+08    wddeer  1.000  0.000  1
ads1duck      log    factor   2.5000000E-02  2.50000e-02  7.50000e-02    wdduck  1.000  0.000  1
ads2duck      log    factor   2.5000000E-04  2.50000e-04  7.50000e-04    wdduck  1.000  0.000  1
instrduck     log    factor    99.99990      3.75000e+01  9.99999e+01    wdduck  1.000  0.000  1
bacduck       log    factor   8.0000003E+08  7.60000e+08  8.40000e+08    wdduck  1.000  0.000  1
ads1elk       log    factor   3.0000000E-03  3.00000e-03  9.00000e-02    wdelk   1.000  0.000  1
ads2elk       log    factor   4.5000000E-02  1.50000e-03  4.50000e-02    wdelk   1.000  0.000  1
pps1elk       log    factor    9.950000      5.00000e-02  9.95000e+00    wdelk   1.000  0.000  1
pfs1elk       log    factor    1.920885      5.00000e-02  9.95000e+00    wdelk   1.000  0.000  1
pps2elk       log    factor    9.950000      5.00000e-02  9.95000e+00    wdelk   1.000  0.000  1
pfs2elk       log    factor    9.950000      5.00000e-02  9.95000e+00    wdelk   1.000  0.000  1
bacelk        log    factor   6.6500000E+08  6.65000e+08  7.35000e+08    wdelk   1.000  0.000  1
ads1gese      log    factor   1.3888900E-02  1.38889e-02  2.31481e-02    wdgese  1.000  0.000  1
ads2gese      log    factor   1.8518500E-06  1.85185e-06  3.68519e-04    wdgese  1.000  0.000  1
instrgese     log    factor    93.75000      5.62500e+01  9.37500e+01    wdgese  1.000  0.000  1
bacgese       log    factor   8.0000003E+08  7.60000e+08  8.40000e+08    wdgese  1.000  0.000  1
adgull        log    factor   4.5455000E-05  4.54546e-05  9.04546e-03    wdgull  1.000  0.000  1
instrgull     log    factor    47.50000      5.00000e+00  9.99999e+01    wdgull  1.000  0.000  1
bacgull       log    factor   2.3900007E+09  2.27050e+09  2.50950e+09    wdgull  1.000  0.000  1
adheeg        log    factor   1.3794000E-05  1.37931e-05  2.74483e-03    wdheeg  1.000  0.000  1
instrheeg     log    factor    99.00000      8.91000e+01  9.99999e+01    wdheeg  1.000  0.000  1
bacheeg       log    factor   4.3020000E+09  4.30200e+09  5.25800e+09    wdheeg  1.000  0.000  1
adotter       log    factor   0.3000000      3.00000e-01  9.00000e+00    wdoter  1.000  0.000  1
instrotter    log    factor    31.16397      1.87500e+01  3.12500e+01    wdoter  1.000  0.000  1
bacotter      log    factor   1.9665000E+07  1.96650e+07  2.17350e+07    wdoter  1.000  0.000  1
adracn        log    factor   4.7296819E-03  9.50000e-04  9.50000e-01    wdracn  1.000  0.000  1
instrracn     log    factor    5.000390      5.00000e+00  9.50000e+01    wdracn  1.000  0.000  1
bacracn       log    factor   4.7500000E+07  4.75000e+07  5.25000e+07    wdracn  1.000  0.000  1
* observation groups
resrch04
resrch09
resrch12
resrch17
resrch18
digress406
* observation data
 rch0420070621       2.447158E+00       1.00    resrch04
 rch0420070719       2.591065E+00       1.00    resrch04
 rch0420070817       2.643453E+00       1.00    resrch04
 rch0420070913       2.838849E+00       1.00    resrch04
 rch0420071016       2.414973E+00       1.00    resrch04
 rch0420071114       2.041393E+00       1.00    resrch04
 rch0420080104       2.079181E+00       1.00    resrch04
 rch0420080206       1.414973E+00       1.00    resrch04
 rch0420080304       1.633468E+00       1.00    resrch04
 rch0420080408       1.397940E+00       1.00    resrch04
 rch0420080506       2.146128E+00       1.00    resrch04
 rch0420080613       2.991226E+00       1.00    resrch04
 rch0420080707       3.041393E+00       1.00    resrch04
 rch0420080728       2.352183E+00       1.00    resrch04
 rch0420080818       2.638489E+00       1.00    resrch04
 rch0420080908       2.716003E+00       1.00    resrch04
 rch0420080930       2.690196E+00       1.00    resrch04
 rch0420091019       1.851258E+00       1.00    resrch04
 rch0420091116       1.568202E+00       1.00    resrch04
 rch0420091214       1.361728E+00       1.00    resrch04
 rch0420100104       7.781513E-01       1.00    resrch04
 rch0420100124       1.176091E+00       1.00    resrch04
 rch0420100218       7.923917E-01       1.00    resrch04
 rch0420100308       1.477121E+00       1.00    resrch04
 rch0420100329       2.886491E+00       1.00    resrch04
 rch0420100419       1.623249E+00       1.00    resrch04
 rch0420100510       2.146128E+00       1.00    resrch04
 rch0420100602       2.939519E+00       1.00    resrch04
 rch0420100621       1.826075E+00       1.00    resrch04
 rch0420100712       2.301030E+00       1.00    resrch04
 rch0420100802       3.230449E+00       1.00    resrch04
 rch0420100823       2.518514E+00       1.00    resrch04
 rch0420100913       2.662758E+00       1.00    resrch04
 rch0420101004       2.278754E+00       1.00    resrch04
 rch0420101025       2.755875E+00       1.00    resrch04
 rch0420101117       1.612784E+00       1.00    resrch04
 rch0420101206       1.462398E+00       1.00    resrch04
 rch0420101227       1.342423E+00       1.00    resrch04
 rch0920080408       1.414973E+00       1.00    resrch09
 rch0920080506       1.832509E+00       1.00    resrch09
 rch0920080613       1.799341E+00       1.00    resrch09
 rch0920080707       1.806180E+00       1.00    resrch09
 rch0920080728       1.380211E+00       1.00    resrch09
 rch0920080818       1.755875E+00       1.00    resrch09
 rch0920080908       9.542425E-01       1.00    resrch09
 rch0920080930       1.204120E+00       1.00    resrch09
 rch1220070621       1.361728E+00       1.00    resrch12
 rch1220070719       1.716003E+00       1.00    resrch12
 rch1220070817       1.477121E+00       1.00    resrch12
 rch1220070913       1.690196E+00       1.00    resrch12
 rch1220071016       1.414973E+00       1.00    resrch12
 rch1220071114       1.662758E+00       1.00    resrch12
 rch1220080104       2.204120E+00       1.00    resrch12
 rch1220080206       1.041393E+00       1.00    resrch12
 rch1220080304       1.278754E+00       1.00    resrch12
 rch1220080408       1.204120E+00       1.00    resrch12
 rch1220080506       1.505150E+00       1.00    resrch12
 rch1220080613       1.518514E+00       1.00    resrch12
 rch1220080707       1.770852E+00       1.00    resrch12
 rch1220080728       1.079181E+00       1.00    resrch12
 rch1220080818       1.690196E+00       1.00    resrch12
 rch1220080908       1.740363E+00       1.00    resrch12
 rch1220080930       1.041393E+00       1.00    resrch12
 rch1720070621       1.748188E+00       1.00    resrch17
 rch1720070719       1.643453E+00       1.00    resrch17
 rch1720070817       1.995635E+00       1.00    resrch17
 rch1720070913       1.919078E+00       1.00    resrch17
 rch1720071016       1.447158E+00       1.00    resrch17
 rch1720071114       1.591065E+00       1.00    resrch17
 rch1720071204       1.748188E+00       1.00    resrch17
 rch1720071205       1.763428E+00       1.00    resrch17
 rch1720071206       1.633468E+00       1.00    resrch17
 rch1720080104       2.414973E+00       1.00    resrch17
 rch1720080206       1.255273E+00       1.00    resrch17
 rch1720080304       1.146128E+00       1.00    resrch17
 rch1720080408       1.491362E+00       1.00    resrch17
 rch1720080506       1.301030E+00       1.00    resrch17
 rch1720081111       1.934498E+00       1.00    resrch17
 rch1720081112       2.146128E+00       1.00    resrch17
 rch1720081113       2.612784E+00       1.00    resrch17
 rch1720091019       1.278754E+00       1.00    resrch17
 rch1720091116       1.278754E+00       1.00    resrch17
 rch1720091214       1.301030E+00       1.00    resrch17
 rch1720100104       7.160033E-01       1.00    resrch17
 rch1720100124       1.176091E+00       1.00    resrch17
 rch1720100218       1.491362E+00       1.00    resrch17
 rch1720100308       9.867717E-01       1.00    resrch17
 rch1720100329       2.662758E+00       1.00    resrch17
 rch1720100419       1.579784E+00       1.00    resrch17
 rch1720100510       1.431364E+00       1.00    resrch17
 rch1720100602       3.041393E+00       1.00    resrch17
 rch1720100621       1.819544E+00       1.00    resrch17
 rch1720100712       1.954243E+00       1.00    resrch17
 rch1720100802       1.982271E+00       1.00    resrch17
 rch1720100823       1.672098E+00       1.00    resrch17
 rch1720100913       1.531479E+00       1.00    resrch17
 rch1720101004       4.771213E-01       1.00    resrch17
 rch1720101025       2.698970E+00       1.00    resrch17
 rch1720101117       1.380211E+00       1.00    resrch17
 rch1720101206       1.447158E+00       1.00    resrch17
 rch1720101227       1.278754E+00       1.00    resrch17
 rch1820070621       1.397940E+00       1.00    resrch18
 rch1820070719       1.447158E+00       1.00    resrch18
 rch1820070817       1.748188E+00       1.00    resrch18
 rch1820070913       1.414973E+00       1.00    resrch18
 rch1820071016       2.041393E+00       1.00    resrch18
 rch1820071114       1.431364E+00       1.00    resrch18
 rch1820080104       1.690196E+00       1.00    resrch18
 rch1820080206       1.000000E+00       1.00    resrch18
 rch1820080304       1.146128E+00       1.00    resrch18
 rch1820080408       1.591065E+00       1.00    resrch18
 rch1820080506       1.491362E+00       1.00    resrch18
 rch0420070817dig    2.643453E+00       1.00    digress406
 rch0420070913dig    2.838849E+00       1.00    digress406
 rch0420080613dig    2.991226E+00       1.00    digress406
 rch0420080707dig    3.041393E+00       1.00    digress406
 rch0420080818dig    2.638489E+00       1.00    digress406
 rch0420080908dig    2.716003E+00       1.00    digress406
 rch0420080930dig    2.690196E+00       1.00    digress406
 rch0420100329dig    2.886491E+00       1.00    digress406
 rch0420100602dig    2.939519E+00       1.00    digress406
 rch0420100802dig    3.230449E+00       1.00    digress406
 rch0420100913dig    2.662758E+00       1.00    digress406
 rch0420101025dig    2.755875E+00       1.00    digress406
 rch1720081113dig    2.612784E+00       1.00    digress406
 rch1720100329dig    2.662758E+00       1.00    digress406
 rch1720100602dig    3.041393E+00       1.00    digress406
 rch1720101025dig    2.698970E+00       1.00    digress406
* model command line
model.bat
* model input/output
..\Model\sub-models\General\perlndqin.tpl  ..\Model\sub-models\General\perlndqin.txt
..\Model\sub-models\General\rchresqin.tpl  ..\Model\sub-models\General\rchresqin.txt
..\Model\sub-models\Cow-Calf\cowcalf01.tpl ..\Model\sub-models\Cow-Calf\cowcalf01.txt
..\Model\sub-models\Cow-Calf\cowcalf02.tpl ..\Model\sub-models\Cow-Calf\cowcalf02.txt
..\Model\sub-models\Cow-Calf\cowcalf04.tpl ..\Model\sub-models\Cow-Calf\cowcalf04.txt
..\Model\sub-models\Cow-Calf\cowcalf05.tpl ..\Model\sub-models\Cow-Calf\cowcalf05.txt
..\Model\sub-models\Cow-Calf\cowcalf06.tpl ..\Model\sub-models\Cow-Calf\cowcalf06.txt
..\Model\sub-models\Cow-Calf\cowcalf07.tpl ..\Model\sub-models\Cow-Calf\cowcalf07.txt
..\Model\sub-models\Cow-Calf\cowcalf08.tpl ..\Model\sub-models\Cow-Calf\cowcalf08.txt
..\Model\sub-models\Cow-Calf\cowcalf09.tpl ..\Model\sub-models\Cow-Calf\cowcalf09.txt
..\Model\sub-models\Cow-Calf\cowcalf10.tpl ..\Model\sub-models\Cow-Calf\cowcalf10.txt
..\Model\sub-models\Cow-Calf\cowcalf11.tpl ..\Model\sub-models\Cow-Calf\cowcalf11.txt
..\Model\sub-models\Cow-Calf\cowcalf12.tpl ..\Model\sub-models\Cow-Calf\cowcalf12.txt
..\Model\sub-models\Cow-Calf\cowcalf13.tpl ..\Model\sub-models\Cow-Calf\cowcalf13.txt
..\Model\sub-models\Cow-Calf\cowcalf14.tpl ..\Model\sub-models\Cow-Calf\cowcalf14.txt
..\Model\sub-models\Cow-Calf\cowcalf16.tpl ..\Model\sub-models\Cow-Calf\cowcalf16.txt
..\Model\sub-models\Cow-Calf\cowcalf17.tpl ..\Model\sub-models\Cow-Calf\cowcalf17.txt
..\Model\sub-models\Cow-Calf\cowcalf18.tpl ..\Model\sub-models\Cow-Calf\cowcalf18.txt
..\Model\sub-models\On-site_and_Pets\OnSitePets01.tpl  ..\Model\sub-models\On-site_and_Pets\OnSitePets01.txt
..\Model\sub-models\On-site_and_Pets\OnSitePets02.tpl  ..\Model\sub-models\On-site_and_Pets\OnSitePets02.txt
..\Model\sub-models\On-site_and_Pets\OnSitePets04.tpl  ..\Model\sub-models\On-site_and_Pets\OnSitePets04.txt
..\Model\sub-models\On-site_and_Pets\OnSitePets05.tpl  ..\Model\sub-models\On-site_and_Pets\OnSitePets05.txt
..\Model\sub-models\On-site_and_Pets\OnSitePets06.tpl  ..\Model\sub-models\On-site_and_Pets\OnSitePets06.txt
..\Model\sub-models\On-site_and_Pets\OnSitePets07.tpl  ..\Model\sub-models\On-site_and_Pets\OnSitePets07.txt
..\Model\sub-models\On-site_and_Pets\OnSitePets08.tpl  ..\Model\sub-models\On-site_and_Pets\OnSitePets08.txt
..\Model\sub-models\On-site_and_Pets\OnSitePets09.tpl  ..\Model\sub-models\On-site_and_Pets\OnSitePets09.txt
..\Model\sub-models\On-site_and_Pets\OnSitePets10.tpl  ..\Model\sub-models\On-site_and_Pets\OnSitePets10.txt
..\Model\sub-models\On-site_and_Pets\OnSitePets11.tpl  ..\Model\sub-models\On-site_and_Pets\OnSitePets11.txt
..\Model\sub-models\On-site_and_Pets\OnSitePets12.tpl  ..\Model\sub-models\On-site_and_Pets\OnSitePets12.txt
..\Model\sub-models\On-site_and_Pets\OnSitePets13.tpl  ..\Model\sub-models\On-site_and_Pets\OnSitePets13.txt
..\Model\sub-models\On-site_and_Pets\OnSitePets14.tpl  ..\Model\sub-models\On-site_and_Pets\OnSitePets14.txt
..\Model\sub-models\On-site_and_Pets\OnSitePets16.tpl  ..\Model\sub-models\On-site_and_Pets\OnSitePets16.txt
..\Model\sub-models\On-site_and_Pets\OnSitePets17.tpl  ..\Model\sub-models\On-site_and_Pets\OnSitePets17.txt
..\Model\sub-models\On-site_and_Pets\OnSitePets18.tpl  ..\Model\sub-models\On-site_and_Pets\OnSitePets18.txt
..\Model\sub-models\Wildlife-Beaver\wildlifeBeaver01.tpl  ..\Model\sub-models\Wildlife-Beaver\wildlifeBeaver01.txt
..\Model\sub-models\Wildlife-Beaver\wildlifeBeaver02.tpl  ..\Model\sub-models\Wildlife-Beaver\wildlifeBeaver02.txt
..\Model\sub-models\Wildlife-Beaver\wildlifeBeaver04.tpl  ..\Model\sub-models\Wildlife-Beaver\wildlifeBeaver04.txt
..\Model\sub-models\Wildlife-Beaver\wildlifeBeaver05.tpl  ..\Model\sub-models\Wildlife-Beaver\wildlifeBeaver05.txt
..\Model\sub-models\Wildlife-Beaver\wildlifeBeaver06.tpl  ..\Model\sub-models\Wildlife-Beaver\wildlifeBeaver06.txt
..\Model\sub-models\Wildlife-Beaver\wildlifeBeaver07.tpl  ..\Model\sub-models\Wildlife-Beaver\wildlifeBeaver07.txt
..\Model\sub-models\Wildlife-Beaver\wildlifeBeaver08.tpl  ..\Model\sub-models\Wildlife-Beaver\wildlifeBeaver08.txt
..\Model\sub-models\Wildlife-Beaver\wildlifeBeaver09.tpl  ..\Model\sub-models\Wildlife-Beaver\wildlifeBeaver09.txt
..\Model\sub-models\Wildlife-Beaver\wildlifeBeaver10.tpl  ..\Model\sub-models\Wildlife-Beaver\wildlifeBeaver10.txt
..\Model\sub-models\Wildlife-Beaver\wildlifeBeaver11.tpl  ..\Model\sub-models\Wildlife-Beaver\wildlifeBeaver11.txt
..\Model\sub-models\Wildlife-Beaver\wildlifeBeaver12.tpl  ..\Model\sub-models\Wildlife-Beaver\wildlifeBeaver12.txt
..\Model\sub-models\Wildlife-Beaver\wildlifeBeaver13.tpl  ..\Model\sub-models\Wildlife-Beaver\wildlifeBeaver13.txt
..\Model\sub-models\Wildlife-Beaver\wildlifeBeaver14.tpl  ..\Model\sub-models\Wildlife-Beaver\wildlifeBeaver14.txt
..\Model\sub-models\Wildlife-Beaver\wildlifeBeaver16.tpl  ..\Model\sub-models\Wildlife-Beaver\wildlifeBeaver16.txt
..\Model\sub-models\Wildlife-Beaver\wildlifeBeaver17.tpl  ..\Model\sub-models\Wildlife-Beaver\wildlifeBeaver17.txt
..\Model\sub-models\Wildlife-Beaver\wildlifeBeaver18.tpl  ..\Model\sub-models\Wildlife-Beaver\wildlifeBeaver18.txt
..\Model\sub-models\Wildlife-Coyote\wildlifeCoyote01.tpl  ..\Model\sub-models\Wildlife-Coyote\wildlifeCoyote01.txt
..\Model\sub-models\Wildlife-Coyote\wildlifeCoyote02.tpl  ..\Model\sub-models\Wildlife-Coyote\wildlifeCoyote02.txt
..\Model\sub-models\Wildlife-Coyote\wildlifeCoyote04.tpl  ..\Model\sub-models\Wildlife-Coyote\wildlifeCoyote04.txt
..\Model\sub-models\Wildlife-Coyote\wildlifeCoyote05.tpl  ..\Model\sub-models\Wildlife-Coyote\wildlifeCoyote05.txt
..\Model\sub-models\Wildlife-Coyote\wildlifeCoyote06.tpl  ..\Model\sub-models\Wildlife-Coyote\wildlifeCoyote06.txt
..\Model\sub-models\Wildlife-Coyote\wildlifeCoyote07.tpl  ..\Model\sub-models\Wildlife-Coyote\wildlifeCoyote07.txt
..\Model\sub-models\Wildlife-Coyote\wildlifeCoyote08.tpl  ..\Model\sub-models\Wildlife-Coyote\wildlifeCoyote08.txt
..\Model\sub-models\Wildlife-Coyote\wildlifeCoyote09.tpl  ..\Model\sub-models\Wildlife-Coyote\wildlifeCoyote09.txt
..\Model\sub-models\Wildlife-Coyote\wildlifeCoyote10.tpl  ..\Model\sub-models\Wildlife-Coyote\wildlifeCoyote10.txt
..\Model\sub-models\Wildlife-Coyote\wildlifeCoyote11.tpl  ..\Model\sub-models\Wildlife-Coyote\wildlifeCoyote11.txt
..\Model\sub-models\Wildlife-Coyote\wildlifeCoyote12.tpl  ..\Model\sub-models\Wildlife-Coyote\wildlifeCoyote12.txt
..\Model\sub-models\Wildlife-Coyote\wildlifeCoyote13.tpl  ..\Model\sub-models\Wildlife-Coyote\wildlifeCoyote13.txt
..\Model\sub-models\Wildlife-Coyote\wildlifeCoyote14.tpl  ..\Model\sub-models\Wildlife-Coyote\wildlifeCoyote14.txt
..\Model\sub-models\Wildlife-Coyote\wildlifeCoyote16.tpl  ..\Model\sub-models\Wildlife-Coyote\wildlifeCoyote16.txt
..\Model\sub-models\Wildlife-Coyote\wildlifeCoyote17.tpl  ..\Model\sub-models\Wildlife-Coyote\wildlifeCoyote17.txt
..\Model\sub-models\Wildlife-Coyote\wildlifeCoyote18.tpl  ..\Model\sub-models\Wildlife-Coyote\wildlifeCoyote18.txt
..\Model\sub-models\Wildlife-Deer\wildlifeDeer01.tpl  ..\Model\sub-models\Wildlife-Deer\wildlifeDeer01.txt
..\Model\sub-models\Wildlife-Deer\wildlifeDeer02.tpl  ..\Model\sub-models\Wildlife-Deer\wildlifeDeer02.txt
..\Model\sub-models\Wildlife-Deer\wildlifeDeer04.tpl  ..\Model\sub-models\Wildlife-Deer\wildlifeDeer04.txt
..\Model\sub-models\Wildlife-Deer\wildlifeDeer05.tpl  ..\Model\sub-models\Wildlife-Deer\wildlifeDeer05.txt
..\Model\sub-models\Wildlife-Deer\wildlifeDeer06.tpl  ..\Model\sub-models\Wildlife-Deer\wildlifeDeer06.txt
..\Model\sub-models\Wildlife-Deer\wildlifeDeer07.tpl  ..\Model\sub-models\Wildlife-Deer\wildlifeDeer07.txt
..\Model\sub-models\Wildlife-Deer\wildlifeDeer08.tpl  ..\Model\sub-models\Wildlife-Deer\wildlifeDeer08.txt
..\Model\sub-models\Wildlife-Deer\wildlifeDeer09.tpl  ..\Model\sub-models\Wildlife-Deer\wildlifeDeer09.txt
..\Model\sub-models\Wildlife-Deer\wildlifeDeer10.tpl  ..\Model\sub-models\Wildlife-Deer\wildlifeDeer10.txt
..\Model\sub-models\Wildlife-Deer\wildlifeDeer11.tpl  ..\Model\sub-models\Wildlife-Deer\wildlifeDeer11.txt
..\Model\sub-models\Wildlife-Deer\wildlifeDeer12.tpl  ..\Model\sub-models\Wildlife-Deer\wildlifeDeer12.txt
..\Model\sub-models\Wildlife-Deer\wildlifeDeer13.tpl  ..\Model\sub-models\Wildlife-Deer\wildlifeDeer13.txt
..\Model\sub-models\Wildlife-Deer\wildlifeDeer14.tpl  ..\Model\sub-models\Wildlife-Deer\wildlifeDeer14.txt
..\Model\sub-models\Wildlife-Deer\wildlifeDeer16.tpl  ..\Model\sub-models\Wildlife-Deer\wildlifeDeer16.txt
..\Model\sub-models\Wildlife-Deer\wildlifeDeer17.tpl  ..\Model\sub-models\Wildlife-Deer\wildlifeDeer17.txt
..\Model\sub-models\Wildlife-Deer\wildlifeDeer18.tpl  ..\Model\sub-models\Wildlife-Deer\wildlifeDeer18.txt
..\Model\sub-models\Wildlife-Duck\wildlifeDuck01.tpl  ..\Model\sub-models\Wildlife-Duck\wildlifeDuck01.txt
..\Model\sub-models\Wildlife-Duck\wildlifeDuck02.tpl  ..\Model\sub-models\Wildlife-Duck\wildlifeDuck02.txt
..\Model\sub-models\Wildlife-Duck\wildlifeDuck04.tpl  ..\Model\sub-models\Wildlife-Duck\wildlifeDuck04.txt
..\Model\sub-models\Wildlife-Duck\wildlifeDuck05.tpl  ..\Model\sub-models\Wildlife-Duck\wildlifeDuck05.txt
..\Model\sub-models\Wildlife-Duck\wildlifeDuck06.tpl  ..\Model\sub-models\Wildlife-Duck\wildlifeDuck06.txt
..\Model\sub-models\Wildlife-Duck\wildlifeDuck07.tpl  ..\Model\sub-models\Wildlife-Duck\wildlifeDuck07.txt
..\Model\sub-models\Wildlife-Duck\wildlifeDuck08.tpl  ..\Model\sub-models\Wildlife-Duck\wildlifeDuck08.txt
..\Model\sub-models\Wildlife-Duck\wildlifeDuck09.tpl  ..\Model\sub-models\Wildlife-Duck\wildlifeDuck09.txt
..\Model\sub-models\Wildlife-Duck\wildlifeDuck10.tpl  ..\Model\sub-models\Wildlife-Duck\wildlifeDuck10.txt
..\Model\sub-models\Wildlife-Duck\wildlifeDuck11.tpl  ..\Model\sub-models\Wildlife-Duck\wildlifeDuck11.txt
..\Model\sub-models\Wildlife-Duck\wildlifeDuck12.tpl  ..\Model\sub-models\Wildlife-Duck\wildlifeDuck12.txt
..\Model\sub-models\Wildlife-Duck\wildlifeDuck13.tpl  ..\Model\sub-models\Wildlife-Duck\wildlifeDuck13.txt
..\Model\sub-models\Wildlife-Duck\wildlifeDuck14.tpl  ..\Model\sub-models\Wildlife-Duck\wildlifeDuck14.txt
..\Model\sub-models\Wildlife-Duck\wildlifeDuck16.tpl  ..\Model\sub-models\Wildlife-Duck\wildlifeDuck16.txt
..\Model\sub-models\Wildlife-Duck\wildlifeDuck17.tpl  ..\Model\sub-models\Wildlife-Duck\wildlifeDuck17.txt
..\Model\sub-models\Wildlife-Duck\wildlifeDuck18.tpl  ..\Model\sub-models\Wildlife-Duck\wildlifeDuck18.txt
..\Model\sub-models\Wildlife-Elk\wildlifeElk01.tpl  ..\Model\sub-models\Wildlife-Elk\wildlifeElk01.txt
..\Model\sub-models\Wildlife-Elk\wildlifeElk02.tpl  ..\Model\sub-models\Wildlife-Elk\wildlifeElk02.txt
..\Model\sub-models\Wildlife-Elk\wildlifeElk04.tpl  ..\Model\sub-models\Wildlife-Elk\wildlifeElk04.txt
..\Model\sub-models\Wildlife-Elk\wildlifeElk05.tpl  ..\Model\sub-models\Wildlife-Elk\wildlifeElk05.txt
..\Model\sub-models\Wildlife-Elk\wildlifeElk06.tpl  ..\Model\sub-models\Wildlife-Elk\wildlifeElk06.txt
..\Model\sub-models\Wildlife-Elk\wildlifeElk07.tpl  ..\Model\sub-models\Wildlife-Elk\wildlifeElk07.txt
..\Model\sub-models\Wildlife-Elk\wildlifeElk08.tpl  ..\Model\sub-models\Wildlife-Elk\wildlifeElk08.txt
..\Model\sub-models\Wildlife-Elk\wildlifeElk09.tpl  ..\Model\sub-models\Wildlife-Elk\wildlifeElk09.txt
..\Model\sub-models\Wildlife-Elk\wildlifeElk10.tpl  ..\Model\sub-models\Wildlife-Elk\wildlifeElk10.txt
..\Model\sub-models\Wildlife-Elk\wildlifeElk11.tpl  ..\Model\sub-models\Wildlife-Elk\wildlifeElk11.txt
..\Model\sub-models\Wildlife-Elk\wildlifeElk12.tpl  ..\Model\sub-models\Wildlife-Elk\wildlifeElk12.txt
..\Model\sub-models\Wildlife-Elk\wildlifeElk13.tpl  ..\Model\sub-models\Wildlife-Elk\wildlifeElk13.txt
..\Model\sub-models\Wildlife-Elk\wildlifeElk14.tpl  ..\Model\sub-models\Wildlife-Elk\wildlifeElk14.txt